Version 4
SHEET 1 1456 680
WIRE 128 224 48 224
WIRE 272 224 208 224
WIRE 304 224 272 224
WIRE 1056 224 992 224
WIRE 1168 224 1136 224
WIRE 304 288 304 224
WIRE 48 320 48 224
WIRE 992 336 992 304
WIRE 1168 336 1168 224
WIRE 1168 336 992 336
WIRE 48 480 48 400
WIRE 240 480 48 480
WIRE 304 480 304 352
WIRE 304 480 240 480
WIRE 240 528 240 480
FLAG 240 528 0
FLAG 272 224 V2
FLAG 992 336 0
SYMBOL voltage 48 304 R0
WINDOW 123 0 0 Left 0
WINDOW 39 0 0 Left 0
SYMATTR InstName V1
SYMATTR Value PULSE(0 10 0 1n 1n 100m 200m 100000)
SYMBOL res 224 208 R90
WINDOW 0 0 56 VBottom 2
WINDOW 3 32 56 VTop 2
SYMATTR InstName R1
SYMATTR Value 10k
SYMBOL cap 288 288 R0
SYMATTR InstName C1
SYMATTR Value 1µ
SYMBOL voltage 992 208 R0
WINDOW 123 0 0 Left 0
WINDOW 39 0 0 Left 0
SYMATTR InstName V2
SYMATTR Value PULSE(0 10 0 1n 1n 10m 20m 99999)
SYMBOL res 1152 208 R90
WINDOW 0 0 56 VBottom 2
WINDOW 3 32 56 VTop 2
SYMATTR InstName R2
SYMATTR Value 10000k
TEXT 72 40 Left 2 !.tran 0 200m 0 1u
TEXT -144 88 Left 2 !.meas TRAN test1 FIND V(V2) AT 20m
TEXT -392 240 Left 2 !.ic
