Version 4
SHEET 1 1072 680
WIRE 96 240 48 240
WIRE 208 240 176 240
WIRE 240 240 208 240
WIRE 368 240 304 240
WIRE 368 272 368 240
WIRE 48 320 48 240
WIRE 48 480 48 400
WIRE 240 480 48 480
WIRE 368 480 368 352
WIRE 368 480 240 480
WIRE 240 528 240 480
FLAG 240 528 0
FLAG 208 240 test
SYMBOL voltage 48 304 R0
WINDOW 123 0 0 Left 0
WINDOW 39 0 0 Left 0
SYMATTR InstName V1
SYMATTR Value PULSE(0 10 0 1n 1n 10m 20m 100000)
SYMBOL res 192 224 R90
WINDOW 0 0 56 VBottom 2
WINDOW 3 32 56 VTop 2
SYMATTR InstName R1
SYMATTR Value 40
SYMBOL cap 304 224 R90
WINDOW 0 0 32 VBottom 2
WINDOW 3 32 32 VTop 2
SYMATTR InstName C1
SYMATTR Value 25µ
SYMBOL ind 352 256 R0
SYMATTR InstName L1
SYMATTR Value 20m
TEXT 72 40 Left 2 !.tran 0 20m 0 1u
TEXT 576 56 Left 2 !.meas tran test MAX V(test) from 0 to 20m
TEXT 744 120 Left 2 !.ic V(VL)=10
